Circuit: * C:\Users\is2751zv\Desktop\000labs\elecLab5\lt\schem.asc

WARNING: Node NC_01 is floating.

Early termination of direct N-R iteration.
Direct Newton iteration failed to find .op point.  (Use ".option noopiter" to skip.)
Starting Gmin stepping
Gmin = 10
Gmin = 1.07374
Gmin = 0.115292
Gmin = 0.0123794
Gmin = 0.00132923
vernier = 0.5
vernier = 0.666667
Gmin = 0.000497691
vernier = 0.888888
vernier = 1
Gmin = 7.02013e-005
vernier = 0.5
vernier = 0.25
vernier = 0.125
Gmin = 4.97025e-005
vernier = 0.0625
vernier = 0.0833333
Gmin = 4.36773e-005
vernier = 0.111111
vernier = 0.148148
Gmin = 3.30646e-005
vernier = 0.197531
Gmin = 2.14083e-005
vernier = 0.263374
vernier = 0.351165
Gmin = 1.04289e-005
vernier = 0.46822
vernier = 0.624294
Gmin = 3.39414e-006
vernier = 0.832392
Gmin = 6.11188e-007
vernier = 1
Gmin = 6.56258e-008
Gmin = 7.04652e-009
Gmin = 7.56614e-010
Gmin = 8.12409e-011
Gmin = 8.72317e-012
Gmin = 9.36643e-013
Gmin = 1.00571e-013
Gmin = 0
Gmin stepping succeeded in finding the operating point.


Date: Fri Oct 11 13:01:26 2019
Total elapsed time: 0.790 seconds.

tnom = 27
temp = 27
method = modified trap
totiter = 4358
traniter = 3146
tranpoints = 1216
accept = 1155
rejected = 61
matrix size = 62
fillins = 120
solver = Normal
Thread vector: 47.4/19.2[4] 12.7/5.8[4] 7.8/3.3[4] 1.3/16.5[1]  2592/500
Matrix Compiler1: 15.43 KB object code size  5.2/3.0/[1.4]
Matrix Compiler2: 8.53 KB object code size  6.2/7.4/[1.5]

